
#######################################################################
#
#                 Cambridge Crystallographic Data Centre
#                                CCDC 
#
#######################################################################
#
# If this CIF has been generated from an entry in the Cambridge 
# Structural Database, then it will include bibliographic, chemical, 
# crystal, experimental, refinement or atomic coordinate data resulting 
# from the CCDC's data processing and validation procedures.
#
#######################################################################

data_TH5-alpha_Acetone
_symmetry_cell_setting           hexagonal
_symmetry_space_group_name_H-M   'P 63/m m c'
_symmetry_Int_Tables_number      194
_space_group_name_Hall           '-P 6c 2c'
loop_
_symmetry_equiv_pos_site_id
_symmetry_equiv_pos_as_xyz
1 x,y,z
2 -y,x-y,z
3 -x+y,-x,z
4 -x,-y,1/2+z
5 y,-x+y,1/2+z
6 x-y,x,1/2+z
7 y,x,-z
8 x-y,-y,-z
9 -x,-x+y,-z
10 -y,-x,1/2-z
11 -x+y,y,1/2-z
12 x,x-y,1/2-z
13 -x,-y,-z
14 y,-x+y,-z
15 x-y,x,-z
16 x,y,1/2-z
17 -y,x-y,1/2-z
18 -x+y,-x,1/2-z
19 -y,-x,z
20 -x+y,y,z
21 x,x-y,z
22 y,x,1/2+z
23 x-y,-y,1/2+z
24 -x,-x+y,1/2+z
_cell_length_a                   21.3790(11)
_cell_length_b                   21.3790(11)
_cell_length_c                   11.0395(4)
_cell_angle_alpha                90
_cell_angle_beta                 90
_cell_angle_gamma                120
_cell_volume                     4369.73
loop_
_atom_site_label
_atom_site_type_symbol
_atom_site_fract_x
_atom_site_fract_y
_atom_site_fract_z
O1 O 0.46998(4) 0.53002(4) 0.37398(12)
N1 N 0.53120(5) 0.46880(5) 0.37248(13)
H1 H 0.531466 0.468534 0.452192
C1 N 0.666667 0.333333 0.3678(2)
C2 C 0.62873(5) 0.37127(5) 0.31434(15)
C3 C 0.59689(6) 0.40311(6) 0.37704(14)
H3 H 0.596915 0.403085 0.463096
C4 C 0.56433(5) 0.43567(5) 0.31319(16)
C5 C 0.49911(7) 0.50089(7) 0.3181(2)
O1 O 0.46998(4) -0.06004(6) 0.37398(12)
N1 N 0.53120(5) 0.06240(7) 0.37248(13)
H1 H 0.531466 0.062932 0.452192
C2 C 0.62873(5) 0.25746(7) 0.31434(15)
C3 C 0.59689(6) 0.19378(8) 0.37704(14)
H3 H 0.596915 0.193830 0.463096
C4 C 0.56433(5) 0.12866(7) 0.31319(16)
C5 C 0.49911(7) -0.00178(10) 0.3181(2)
O1 O 1.06004(6) 0.53002(4) 0.37398(12)
N1 N 0.93760(7) 0.46880(5) 0.37248(13)
H1 H 0.937068 0.468534 0.452192
C2 C 0.74254(7) 0.37127(5) 0.31434(15)
C3 C 0.80622(8) 0.40311(6) 0.37704(14)
H3 H 0.806170 0.403085 0.463096
C4 C 0.87134(7) 0.43567(5) 0.31319(16)
C5 C 1.00178(10) 0.50089(7) 0.3181(2)
O1 O 0.46998(4) 0.53002(4) 0.12602(12)
N1 N 0.53120(5) 0.46880(5) 0.12752(13)
H1 H 0.531466 0.468534 0.047808
C1 N 0.666667 0.333333 0.1322(2)
C2 C 0.62873(5) 0.37127(5) 0.18566(15)
C3 C 0.59689(6) 0.40311(6) 0.12296(14)
H3 H 0.596915 0.403085 0.036904
C4 C 0.56433(5) 0.43567(5) 0.18681(16)
C5 C 0.49911(7) 0.50089(7) 0.1819(2)
O1 O 1.06004(6) 0.53002(4) 0.12602(12)
N1 N 0.93760(7) 0.46880(5) 0.12752(13)
H1 H 0.937068 0.468534 0.047808
C2 C 0.74254(7) 0.37127(5) 0.18566(15)
C3 C 0.80622(8) 0.40311(6) 0.12296(14)
H3 H 0.806170 0.403085 0.036904
C4 C 0.87134(7) 0.43567(5) 0.18681(16)
C5 C 1.00178(10) 0.50089(7) 0.1819(2)
O1 O 0.46998(4) -0.06004(6) 0.12602(12)
N1 N 0.53120(5) 0.06240(7) 0.12752(13)
H1 H 0.531466 0.062932 0.047808
C2 C 0.62873(5) 0.25746(7) 0.18566(15)
C3 C 0.59689(6) 0.19378(8) 0.12296(14)
H3 H 0.596915 0.193830 0.036904
C4 C 0.56433(5) 0.12866(7) 0.18681(16)
C5 C 0.49911(7) -0.00178(10) 0.1819(2)

#END
